
 OpenBabel10092413473D

 24 25  0  0  0  0  0  0  0  0999 V2000
   -3.2495   -1.1321    0.0194 C   0  0  0  0  0  0  0  0  0  0  0  0
   -2.2651   -0.0801    0.0126 N   0  0  0  0  0  0  0  0  0  0  0  0
   -2.5195    1.2660    0.0046 C   0  0  0  0  0  0  0  0  0  0  0  0
   -1.4056    1.9713    0.0013 N   0  0  0  0  0  0  0  0  0  0  0  0
   -0.4135    1.0379    0.0072 C   0  0  0  0  0  0  0  0  0  0  0  0
   -0.9081   -0.2309    0.0137 C   0  0  0  0  0  0  0  0  0  0  0  0
   -0.0835   -1.3883    0.0205 C   0  0  0  0  0  0  0  0  0  0  0  0
   -0.5395   -2.5278    0.0283 O   0  0  0  0  0  0  0  0  0  0  0  0
    1.2803   -1.0810    0.0173 N   0  0  0  0  0  0  0  0  0  0  0  0
    2.2279   -2.1782    0.0220 C   0  0  0  0  0  0  0  0  0  0  0  0
    1.8309    0.2179    0.0119 C   0  0  0  0  0  0  0  0  0  0  0  0
    3.0539    0.3882    0.0110 O   0  0  0  0  0  0  0  0  0  0  0  0
    0.9371    1.2893    0.0076 N   0  0  0  0  0  0  0  0  0  0  0  0
    1.4222    2.6573    0.0008 C   0  0  0  0  0  0  0  0  0  0  0  0
   -4.2510   -0.6944    0.0052 H   0  0  0  0  0  0  0  0  0  0  0  0
   -3.1192   -1.7244    0.9285 H   0  0  0  0  0  0  0  0  0  0  0  0
   -3.1054   -1.7500   -0.8704 H   0  0  0  0  0  0  0  0  0  0  0  0
   -3.5220    1.6755    0.0017 H   0  0  0  0  0  0  0  0  0  0  0  0
    1.7398   -3.1559    0.0199 H   0  0  0  0  0  0  0  0  0  0  0  0
    2.8592   -2.0986    0.9131 H   0  0  0  0  0  0  0  0  0  0  0  0
    2.8680   -2.0996   -0.8630 H   0  0  0  0  0  0  0  0  0  0  0  0
    2.5143    2.7029    0.0155 H   0  0  0  0  0  0  0  0  0  0  0  0
    1.0393    3.1771    0.8847 H   0  0  0  0  0  0  0  0  0  0  0  0
    1.0636    3.1585   -0.9038 H   0  0  0  0  0  0  0  0  0  0  0  0
  1  2  1  0  0  0  0
  1 15  1  0  0  0  0
  1 16  1  0  0  0  0
  1 17  1  0  0  0  0
  2  3  1  0  0  0  0
  2  6  1  0  0  0  0
  3  4  2  0  0  0  0
  3 18  1  0  0  0  0
  4  5  1  0  0  0  0
  5  6  2  0  0  0  0
  5 13  1  0  0  0  0
  6  7  1  0  0  0  0
  7  8  2  0  0  0  0
  7  9  1  0  0  0  0
  9 10  1  0  0  0  0
  9 11  1  0  0  0  0
 10 19  1  0  0  0  0
 10 20  1  0  0  0  0
 10 21  1  0  0  0  0
 11 12  2  0  0  0  0
 11 13  1  0  0  0  0
 13 14  1  0  0  0  0
 14 22  1  0  0  0  0
 14 23  1  0  0  0  0
 14 24  1  0  0  0  0
M  END
>  <Energy>
-122.528

$$$$
