
 OpenBabel10122404173D

 24 25  0  0  0  0  0  0  0  0999 V2000
   -3.2494   -1.1311    0.0194 C   0  0  0  0  0  0  0  0  0  0  0  0
   -2.2647   -0.0792    0.0122 N   0  0  0  0  0  0  0  0  0  0  0  0
   -2.5189    1.2670    0.0039 C   0  0  0  0  0  0  0  0  0  0  0  0
   -1.4049    1.9720    0.0005 N   0  0  0  0  0  0  0  0  0  0  0  0
   -0.4130    1.0385    0.0067 C   0  0  0  0  0  0  0  0  0  0  0  0
   -0.9078   -0.2302    0.0134 C   0  0  0  0  0  0  0  0  0  0  0  0
   -0.0835   -1.3878    0.0204 C   0  0  0  0  0  0  0  0  0  0  0  0
   -0.5397   -2.5272    0.0284 O   0  0  0  0  0  0  0  0  0  0  0  0
    1.2804   -1.0808    0.0172 N   0  0  0  0  0  0  0  0  0  0  0  0
    1.8313    0.2181    0.0118 C   0  0  0  0  0  0  0  0  0  0  0  0
    3.0543    0.3881    0.0111 O   0  0  0  0  0  0  0  0  0  0  0  0
    0.9377    1.2896    0.0072 N   0  0  0  0  0  0  0  0  0  0  0  0
    1.4230    2.6575    0.0005 C   0  0  0  0  0  0  0  0  0  0  0  0
    2.2278   -2.1781    0.0221 C   0  0  0  0  0  0  0  0  0  0  0  0
   -4.2508   -0.6932    0.0046 H   0  0  0  0  0  0  0  0  0  0  0  0
   -3.1194   -1.7228    0.9290 H   0  0  0  0  0  0  0  0  0  0  0  0
   -3.1052   -1.7495   -0.8699 H   0  0  0  0  0  0  0  0  0  0  0  0
   -3.5213    1.6766    0.0009 H   0  0  0  0  0  0  0  0  0  0  0  0
    2.5151    2.7030    0.0155 H   0  0  0  0  0  0  0  0  0  0  0  0
    1.0399    3.1775    0.8843 H   0  0  0  0  0  0  0  0  0  0  0  0
    1.0648    3.1588   -0.9043 H   0  0  0  0  0  0  0  0  0  0  0  0
    1.7396   -3.1557    0.0198 H   0  0  0  0  0  0  0  0  0  0  0  0
    2.8589   -2.0987    0.9134 H   0  0  0  0  0  0  0  0  0  0  0  0
    2.8682   -2.0995   -0.8626 H   0  0  0  0  0  0  0  0  0  0  0  0
  1  2  1  0  0  0  0
  1 15  1  0  0  0  0
  1 16  1  0  0  0  0
  1 17  1  0  0  0  0
  2  3  1  0  0  0  0
  2  6  1  0  0  0  0
  3  4  2  0  0  0  0
  3 18  1  0  0  0  0
  4  5  1  0  0  0  0
  5  6  2  0  0  0  0
  5 12  1  0  0  0  0
  6  7  1  0  0  0  0
  7  8  2  0  0  0  0
  7  9  1  0  0  0  0
  9 10  1  0  0  0  0
  9 14  1  0  0  0  0
 10 11  2  0  0  0  0
 10 12  1  0  0  0  0
 12 13  1  0  0  0  0
 13 19  1  0  0  0  0
 13 20  1  0  0  0  0
 13 21  1  0  0  0  0
 14 22  1  0  0  0  0
 14 23  1  0  0  0  0
 14 24  1  0  0  0  0
M  END
>  <Energy>
-122.528

$$$$
